# opt=qst3 freq b3lyp/6-31g(d) geom=connectivity

reagents

0 1
 C                  0.00000000    0.00000000   -0.52895475
 H                  0.00000000    0.93789500   -1.12365675
 H                  0.00000000   -0.93789500   -1.12365675
 O                  0.00000000    0.00000000    0.67763025

 1 2 1.0 3 1.0 4 2.0
 2
 3
 4

products

0 1
 C                  0.00000000    0.00000000   -0.65024600
 H                 -0.05408543   -0.97555290   -1.59417305
 H                  0.54591457   -0.97555290   -1.59417305
 O                  0.00000000    0.00000000    0.48768500

 1 4 3.0
 2 3 1.0
 3
 4

ts guess

0 1
 C                 -0.45248214    0.10638404    0.00000000
 H                 -1.51859978    0.19745091    0.00000000
 H                 -2.11337209   -0.53045424    0.00000000
 O                  0.78828682   -0.10352768    0.00000000

 1 2 1.0 4 2.0
 2
 3
 4

