# irc=(maxpoints=20,calcfc) rb3lyp/6-31g(d) scrf=check

TS

0 1
 C                 -0.41863600    0.25701200   -0.00024400
 H                 -1.51078900    0.29049200    0.00091300
 H                 -1.53237900   -1.05845600   -0.00017200
 O                  0.69437300   -0.09676300    0.00009100


