# opt freq b3lyp/6-311g(d) 

C2H4 - Opt + Freq

0 1
 C                  0.65980796    0.11641931    0.09562281
 H                  0.95306940    0.50699195   -0.85640174
 H                  1.18329964   -0.79784090    0.28266485
 C                 -0.65980796   -0.11641931    0.09562281
 H                 -1.18329964    0.79784090    0.28266485
 H                 -0.95306940   -0.50699195   -0.85640174


