# opt freq b3lyp/6-31g(d) 

C3H6 - opt + Freq

0 1
 C                 -1.36616952   -0.01167657   -0.22561776
 H                 -2.32916191    0.21955730    0.22170319
 H                 -1.74956801   -0.75894692   -0.91872451
 C                 -0.13930600    0.45957300   -0.00028900
 C                  1.19982428    0.44099767    0.70325428
 H                  1.72096885   -0.51210077    0.55080622
 H                  1.08685888    0.57816495    1.78576493
 H                 -0.04145151    1.30807405   -0.67761909
 H                  1.85605224    1.23682171    0.33803097


