# opt freq b3lyp/6-31g(d) 

C3H6 - Opt + freq

0 1
 C                 -0.11102243    1.49699967    0.09490661
 H                  0.60411229    2.02152832   -0.50371856
 H                  0.11365358    1.64558033    1.13044732
 C                 -0.05068927   -0.00650282   -0.23287395
 C                  0.03186814   -1.28220469    0.13409882
 H                 -0.80107173   -1.52816945    0.75908884
 H                  0.94193323   -1.43974936    0.67434061
 H                 -0.10072724   -0.04393098   -1.30104778
 H                  0.02116126   -1.90501180   -0.73589927


